gem5 Simulator System.  http://gem5.org
gem5 is copyrighted software; use the --copyright option for details.

gem5 compiled Jul  1 2013 15:06:28
gem5 started Jul  1 2013 15:37:21
gem5 executing on ug51.eecg
command line: build/ALPHA/gem5.opt -re configs/example/se.py --cmd=tests/test-progs/hello/bin/alpha/hello
